3    
Iteration 36 Energy -92.35408360
C        0.0304576867   -0.0047968270   -0.0001124110
N       -1.0881165049    0.1995730845    0.0111742533
H        1.0627322747   -0.1934005113   -0.0105282874
3    
Iteration 35 Energy -92.35408360
C        0.0304576098   -0.0047972468   -0.0001124082
N       -1.0881164674    0.1995732859    0.0111742519
H        1.0627323141   -0.1934002929   -0.0105282888
3    
Iteration 34 Energy -92.35407150
C        0.0303430166   -0.0089742530   -0.0000919052
N       -1.0872212657    0.2014227074    0.0111559421
H        1.0619517056   -0.1910727083   -0.0105304820
3    
Iteration 33 Energy -92.35383834
C        0.0249883487   -0.0286491712    0.0000573076
N       -1.0863276803    0.2111576972    0.0111013083
H        1.0664127882   -0.1811327799   -0.0106250610
3    
Iteration 32 Energy -92.35324667
C        0.0233249030   -0.0494024379    0.0001711368
N       -1.0812661182    0.2203934916    0.0110034097
H        1.0630146716   -0.1696153075   -0.0106409917
3    
Iteration 31 Energy -92.35231366
C        0.0197896748   -0.0699553227    0.0003045053
N       -1.0772150443    0.2298207591    0.0109156757
H        1.0624988260   -0.1584896902   -0.0106866261
3    
Iteration 30 Energy -92.35102672
C        0.0162124977   -0.0907735342    0.0004395552
N       -1.0723304182    0.2392278153    0.0108189221
H        1.0611913770   -0.1470785349   -0.0107249225
3    
Iteration 29 Energy -92.34939637
C        0.0126372163   -0.1116966067    0.0005750677
N       -1.0666121652    0.2485352583    0.0107135143
H        1.0590484054   -0.1354629054   -0.0107550270
3    
Iteration 28 Energy -92.34743582
C        0.0090833541   -0.1326357908    0.0007104202
N       -1.0600731206    0.2577021307    0.0105997812
H        1.0560632229   -0.1236905937   -0.0107766465
3    
Iteration 27 Energy -92.34515829
C        0.0055593818   -0.1535348641    0.0008452611
N       -1.0527312701    0.2667046039    0.0104780293
H        1.0522453448   -0.1117939937   -0.0107897354
3    
Iteration 26 Energy -92.34257605
C        0.0020683072   -0.1743547625    0.0009793774
N       -1.0446087106    0.2755279880    0.0103485678
H        1.0476138599   -0.0997974793   -0.0107943903
3    
Iteration 25 Energy -92.33970021
C       -0.0013897739   -0.1950664482    0.0011126344
N       -1.0357298006    0.2841627948    0.0102117068
H        1.0421930310   -0.0877206004   -0.0107907863
3    
Iteration 24 Energy -92.33654108
C       -0.0048165719   -0.2156473517    0.0012449467
N       -1.0261201567    0.2926027621    0.0100677551
H        1.0360101851   -0.0755796642   -0.0107791469
3    
Iteration 23 Energy -92.33310880
C       -0.0082152709   -0.2360793838    0.0013762656
N       -1.0158059119    0.3008436982    0.0099170179
H        1.0290946393   -0.0633885683   -0.0107597286
3    
Iteration 22 Energy -92.32941391
C       -0.0115906052   -0.2563476973    0.0015065746
N       -1.0048131259    0.3088827004    0.0097597933
H        1.0214771875   -0.0511592568   -0.0107328131
3    
Iteration 21 Energy -92.32546810
C       -0.0149491205   -0.2764398352    0.0016358879
N       -0.9931672968    0.3167175491    0.0095963704
H        1.0131898738   -0.0389019676   -0.0106987033
3    
Iteration 20 Energy -92.32128488
C       -0.0182994668   -0.2963450871    0.0017642505
N       -0.9808929405    0.3243461897    0.0094270266
H        1.0042658639   -0.0266253564   -0.0106577222
3    
Iteration 19 Energy -92.31688023
C       -0.0216526200   -0.3160539715    0.0018917388
N       -0.9680132326    0.3317662680    0.0092520261
H        0.9947393092   -0.0143365503   -0.0106102100
3    
Iteration 18 Energy -92.31227343
C       -0.0250218925   -0.3355577935    0.0020184583
N       -0.9545496933    0.3389747181    0.0090716183
H        0.9846450423   -0.0020411784   -0.0105565217
3    
Iteration 17 Energy -92.30748775
C       -0.0284228778   -0.3548482610    0.0021445412
N       -0.9405219691    0.3459673980    0.0088860371
H        0.9740183034    0.0102566091   -0.0104970235
3    
Iteration 16 Energy -92.30255133
C       -0.0318730448   -0.3739171491    0.0022701407
N       -0.9259476975    0.3527388235    0.0086955007
H        0.9628941987    0.0225540718   -0.0104320864
3    
Iteration 15 Energy -92.29749798
C       -0.0353912645   -0.3927560216    0.0023954240
N       -0.9108425147    0.3592819889    0.0085002121
H        0.9513072357    0.0348497789   -0.0103620812
3    
Iteration 14 Energy -92.29236788
C       -0.0389972805   -0.4113560325    0.0025205663
N       -0.8952202397    0.3655882998    0.0083003621
H        0.9392909767    0.0471434789   -0.0102873735
3    
Iteration 13 Energy -92.28720816
C       -0.0427112616   -0.4297078351    0.0026457450
N       -0.8790932535    0.3716476069    0.0080961329
H        0.9268779716    0.0594359744   -0.0102083230
3    
Iteration 12 Energy -92.28207312
C       -0.0465535537   -0.4478016269    0.0027711374
N       -0.8624730743    0.3774483199    0.0078877037
H        0.9141000845    0.0717290532   -0.0101252862
3    
Iteration 11 Energy -92.27702397
C       -0.0505446970   -0.4656273402    0.0028969215
N       -0.8453710880    0.3829775626    0.0076752584
H        0.9009892415    0.0840255238   -0.0100386250
3    
Iteration 10 Energy -92.27212807
C       -0.0547057627   -0.4831749421    0.0030232816
N       -0.8277993404    0.3882212891    0.0074589933
H        0.8875785595    0.0963293992   -0.0099487201
3    
Iteration 9 Energy -92.26745741
C       -0.0590587537   -0.5004349835    0.0031504146
N       -0.8097715502    0.3931645157    0.0072391276
H        0.8739037604    0.1086462140   -0.0098559874
3    
Iteration 8 Energy -92.26308637
C       -0.0636274775   -0.5173989783    0.0032785417
N       -0.7913037519    0.3977911820    0.0070159105
H        0.8600046859    0.1209835424   -0.0097608974
3    
Iteration 7 Energy -92.25908885
C       -0.0684382436   -0.5340600687    0.0034079189
N       -0.7724152324    0.4020841929    0.0067896317
H        0.8459269325    0.1333516220   -0.0096639957
3    
Iteration 6 Energy -92.25553481
C       -0.0735206688   -0.5504135968    0.0035388485
N       -0.7531292536    0.4060252435    0.0065606298
H        0.8317233789    0.1457640995   -0.0095659234
3    
Iteration 5 Energy -92.25248665
C       -0.0789079297   -0.5664575358    0.0036716838
N       -0.7334735467    0.4095946649    0.0063292987
H        0.8174549329    0.1582386172   -0.0094674276
3    
Iteration 4 Energy -92.24999559
C       -0.0846312647   -0.5821906994    0.0038067610
N       -0.7134779292    0.4127721504    0.0060960578
H        0.8031826504    0.1707942952   -0.0093692639
3    
Iteration 3 Energy -92.24809792
C       -0.0904460954   -0.5974949792    0.0039408618
N       -0.6930355579    0.4155816925    0.0058596287
H        0.7885551098    0.1832890329   -0.0092669356
3    
Iteration 2 Energy -92.24681877
C       -0.0988590907   -0.6134393205    0.0041063162
N       -0.6737868442    0.4175885406    0.0056399482
H        0.7777193913    0.1972265261   -0.0092127095
3    
Iteration 1 Energy -92.24617537
C       -0.1012345052   -0.6247055289    0.0041842065
N       -0.6526900031    0.4198624750    0.0053988326
H        0.7589979647    0.2062188001   -0.0090494843
3    
Iteration 0 Energy -92.24604268
C       -0.1088783634   -0.6365101639    0.0043221742
N       -0.6393457902    0.4205365638    0.0052498438
H        0.7532976101    0.2173493463   -0.0090384631
3    
Iteration 1 Energy -92.24632345
C       -0.1162949047   -0.6510178844    0.0044701143
N       -0.6186345523    0.4219475430    0.0050169208
H        0.7400029135    0.2304460877   -0.0089534802
3    
Iteration 2 Energy -92.24714691
C       -0.1243457999   -0.6645544221    0.0046205135
N       -0.5970872499    0.4222164584    0.0047801210
H        0.7265065063    0.2437137099   -0.0088670796
3    
Iteration 3 Energy -92.24845909
C       -0.1331071566   -0.6784700939    0.0047804269
N       -0.5759831883    0.4223011792    0.0045490158
H        0.7141638013    0.2575446609   -0.0087958878
3    
Iteration 4 Energy -92.25019391
C       -0.1426750995   -0.6921240866    0.0049479521
N       -0.5550116772    0.4216454467    0.0043227721
H        0.7027602333    0.2718543861   -0.0087371693
3    
Iteration 5 Energy -92.25228274
C       -0.1531787151   -0.7056502641    0.0051251173
N       -0.5344253757    0.4202322700    0.0041042304
H        0.6926775473    0.2867937403   -0.0086957928
3    
Iteration 6 Energy -92.25466153
C       -0.1647191899   -0.7190919311    0.0053132282
N       -0.5144372028    0.4179870617    0.0038960621
H        0.6842298492    0.3024806157   -0.0086757353
3    
Iteration 7 Energy -92.25727936
C       -0.1773557718   -0.7324685897    0.0055130224
N       -0.4952671883    0.4148403156    0.0037009929
H        0.6776964166    0.3190040203   -0.0086804604
3    
Iteration 8 Energy -92.26010346
C       -0.1910718609   -0.7457677484    0.0057242609
N       -0.4770948939    0.4107507898    0.0035211760
H        0.6732402113    0.3363927048   -0.0087118820
3    
Iteration 9 Energy -92.26311673
C       -0.2057571027   -0.7589419775    0.0059455186
N       -0.4599933849    0.4057248201    0.0033573809
H        0.6708239441    0.3545929036   -0.0087693446
3    
Iteration 10 Energy -92.26630861
C       -0.2212243167   -0.7719178578    0.0061744109
N       -0.4438880632    0.3998200261    0.0032085266
H        0.6701858364    0.3734735779   -0.0088493826
3    
Iteration 11 Energy -92.26966557
C       -0.2372568045   -0.7846122921    0.0064081859
N       -0.4285813896    0.3931276238    0.0030720330
H        0.6709116506    0.3928604145   -0.0089466640
3    
Iteration 12 Energy -92.27316671
C       -0.2536560684   -0.7969464093    0.0066443100
N       -0.4138285850    0.3857447654    0.0029447765
H        0.6725581099    0.4125773901   -0.0090555317
3    
Iteration 13 Energy -92.27678424
C       -0.2702657862   -0.8088525349    0.0068807624
N       -0.3994083433    0.3777542742    0.0028239561
H        0.6747475860    0.4324740069   -0.0091711636
3    
Iteration 14 Energy -92.28048563
C       -0.2869720135   -0.8202753389    0.0071160424
N       -0.3851541746    0.3692183357    0.0027074649
H        0.6771996446    0.4524327494   -0.0092899524
3    
Iteration 15 Energy -92.28423588
C       -0.3036926863   -0.8311703851    0.0073490481
N       -0.3709534080    0.3601816681    0.0025938652
H        0.6797195509    0.4723644631   -0.0094093584
3    
Iteration 16 Energy -92.28799945
C       -0.3203664913   -0.8415015635    0.0075789427
N       -0.3567334616    0.3506771623    0.0024822120
H        0.6821734094    0.4922001474   -0.0095275998
3    
Iteration 17 Energy -92.29174203
C       -0.3369448238   -0.8512395305    0.0078050598
N       -0.3424481645    0.3407314130    0.0023718778
H        0.6844664448    0.5118838637   -0.0096433827
3    
Iteration 18 Energy -92.29543197
C       -0.3533868633   -0.8603605355    0.0080268435
N       -0.3280675694    0.3303685463    0.0022624242
H        0.6865278891    0.5313677354   -0.0097557127
3    
Iteration 19 Energy -92.29904137
C       -0.3696568912   -0.8688458858    0.0082438172
N       -0.3135712404    0.3196127856    0.0021535160
H        0.6883015881    0.5506088464   -0.0098637783
3    
Iteration 20 Energy -92.30254679
C       -0.3857230360   -0.8766817604    0.0084555689
N       -0.2989440324    0.3084899824    0.0020448686
H        0.6897405249    0.5695675242   -0.0099668825
3    
Iteration 21 Energy -92.30592944
C       -0.4015568746   -0.8838591516    0.0086617462
N       -0.2841735782    0.2970283056    0.0019362169
H        0.6908039094    0.5882065921   -0.0100644082
3    
Iteration 22 Energy -92.30917507
C       -0.4171334674   -0.8903737208    0.0088620565
N       -0.2692489261    0.2852582302    0.0018273008
H        0.6914558500    0.6064912368   -0.0101558024
3    
Iteration 23 Energy -92.31227347
C       -0.4324315009   -0.8962254010    0.0090562666
N       -0.2541599488    0.2732119722    0.0017178610
H        0.6916649062    0.6243891749   -0.0102405727
3    
Iteration 24 Energy -92.31521786
C       -0.4474332898   -0.9014176409    0.0092441989
N       -0.2388972211    0.2609225598    0.0016076424
H        0.6914039674    0.6418708273   -0.0103182864
3    
Iteration 25 Energy -92.31800417
C       -0.4621245010   -0.9059563070    0.0094257239
N       -0.2234521539    0.2484227553    0.0014964000
H        0.6906501113    0.6589092979   -0.0103885690
3    
Iteration 26 Energy -92.32063024
C       -0.4764935792   -0.9098483567    0.0096007471
N       -0.2078172479    0.2357440238    0.0013839069
H        0.6893842835    0.6754800791   -0.0104510991
3    
Iteration 27 Energy -92.32309521
C       -0.4905309473   -0.9131004729    0.0097691949
N       -0.1919863675    0.2229157113    0.0012699607
H        0.6875907713    0.6915605078   -0.0105056007
3    
Iteration 28 Energy -92.32539883
C       -0.5042281218   -0.9157178697    0.0099309984
N       -0.1759550044    0.2099645171    0.0011543891
H        0.6852565827    0.7071290988   -0.0105518325
3    
Iteration 29 Energy -92.32754094
C       -0.5175768759   -0.9177034245    0.0100860809
N       -0.1597205022    0.1969142878    0.0010370531
H        0.6823708347    0.7221648829   -0.0105895791
3    
Iteration 30 Energy -92.32952105
C       -0.5305685558   -0.9190572259    0.0102343483
N       -0.1432822588    0.1837861039    0.0009178490
H        0.6789242712    0.7366468682   -0.0106186424
3    
Iteration 31 Energy -92.33133792
C       -0.5431935880   -0.9197765319    0.0103756833
N       -0.1266419303    0.1705986046    0.0007967091
H        0.6749089748    0.7505536735   -0.0106388375
3    
Iteration 32 Energy -92.33298937
C       -0.5554411498   -0.9198560772    0.0105099432
N       -0.1098036885    0.1573685086    0.0006736018
H        0.6703182948    0.7638633149   -0.0106499902
3    
Iteration 33 Energy -92.33447211
C       -0.5672989162   -0.9192886564    0.0106369602
N       -0.0927746510    0.1441113351    0.0005485335
H        0.6651470237    0.7765530676   -0.0106519389
3    
Iteration 34 Energy -92.33578169
C       -0.5787526840   -0.9180659151    0.0107565405
N       -0.0755657071    0.1308424735    0.0004215523
H        0.6593918477    0.7885991878   -0.0106445379
3    
Iteration 35 Energy -92.33691268
C       -0.5897855181   -0.9161794389    0.0108684601
N       -0.0581933660    0.1175790244    0.0002927598
H        0.6530523407    0.7999761607   -0.0106276650
3    
Iteration 36 Energy -92.33785888
C       -0.6003755029   -0.9136224701    0.0109724483
N       -0.0406841736    0.1043437155    0.0001623416
H        0.6461331330    0.8106545007   -0.0106012350
3    
Iteration 37 Energy -92.33861383
C       -0.6104896541   -0.9103936127    0.0110681381
N       -0.0230865513    0.0911745448    0.0000306518
H        0.6386496619    0.8205948141   -0.0105652350
3    
Iteration 38 Energy -92.33917148
C       -0.6200656353   -0.9065069063    0.0111549127
N       -0.0055058133    0.0781529859   -0.0001015337
H        0.6306449052    0.8297296666   -0.0105198241
3    
Iteration 39 Energy -92.33953218
C       -0.6284562268   -0.9011450002    0.0112219297
N        0.0124679222    0.0659310444   -0.0002417006
H        0.6210617611    0.8365897020   -0.0104466742
3    
Iteration 40 Energy -92.33962662
C       -0.6374609535   -0.8975094740    0.0113036168
N        0.0268062709    0.0508987759   -0.0003291729
H        0.6157281391    0.8479864443   -0.0104408890
3    
Iteration 41 Energy -92.33970703
C       -0.6398659664   -0.8937883474    0.0113127597
N        0.0365730160    0.0490794514   -0.0004275608
H        0.6083664069    0.8460846422   -0.0103516441
3    
Iteration 42 Energy -92.33971310
C       -0.6400257611   -0.8940153669    0.0113155529
N        0.0361270790    0.0484580017   -0.0004198217
H        0.6089721386    0.8469331114   -0.0103621763
3    
Iteration 43 Energy -92.33971310
C       -0.6400257651   -0.8940153638    0.0113155529
N        0.0361270878    0.0484579951   -0.0004198217
H        0.6089721337    0.8469331149   -0.0103621763
