4    
Iteration 0 Energy -1363.10596409
P        0.2238578355    1.1309802898    1.0989460181
P        0.8151038290   -0.3588758134    2.5788731692
P       -0.7631190474   -0.8141132093    1.1430397092
P        1.3075201574   -0.6565274109    0.4744772210
4    
Iteration 1 Energy -1363.11328012
P        0.2199265944    1.1608241814    1.0937984221
P        0.8246799302   -0.3630969191    2.6075499860
P       -0.7896105087   -0.8287271310    1.1389210150
P        1.3283667586   -0.6675362708    0.4550666944
4    
Iteration 2 Energy -1363.11482984
P        0.2173693822    1.1802371109    1.0904500778
P        0.8309084669   -0.3658428839    2.6262026041
P       -0.8068423808   -0.8382330794    1.1362425736
P        1.3419273131   -0.6746972871    0.4424408620
4    
Iteration 3 Energy -1363.11487096
P        0.2169034436    1.1837741460    1.0898398386
P        0.8320427307   -0.3663436186    2.6296000583
P       -0.8099817908   -0.8399648697    1.1357554196
P        1.3443984035   -0.6760017921    0.4401408011
4    
Iteration 4 Energy -1363.11487120
P        0.2168646647    1.1840685331    1.0897889677
P        0.8321367852   -0.3663855293    2.6298822117
P       -0.8102429401   -0.8401088929    1.1357153503
P        1.3446042773   -0.6761102499    0.4399495925
