3    
Iteration 36 Energy -92.35405962
C        0.0304606046   -0.0047978383   -0.0001124382
N       -1.0881083548    0.1995751570    0.0111741546
H        1.0627212067   -0.1934015725   -0.0105281615
3    
Iteration 35 Energy -92.35405962
C        0.0304605970   -0.0047978815   -0.0001124380
N       -1.0881083506    0.1995751776    0.0111741545
H        1.0627212101   -0.1934015500   -0.0105281616
3    
Iteration 34 Energy -92.35404753
C        0.0303437515   -0.0089724513   -0.0000919215
N       -1.0872088192    0.2014228307    0.0111558054
H        1.0619385242   -0.1910746332   -0.0105303290
3    
Iteration 33 Energy -92.35381443
C        0.0249915049   -0.0286478058    0.0000572668
N       -1.0863202255    0.2111587335    0.0111012220
H        1.0664021771   -0.1811351815   -0.0106249339
3    
Iteration 32 Energy -92.35322286
C        0.0233281262   -0.0494013658    0.0001710967
N       -1.0812628005    0.2203953585    0.0110033649
H        1.0630081308   -0.1696182465   -0.0106409066
3    
Iteration 31 Energy -92.35228989
C        0.0197931812   -0.0699540279    0.0003044610
N       -1.0772113824    0.2298223868    0.0109156281
H        1.0624916577   -0.1584926128   -0.0106865343
3    
Iteration 30 Energy -92.35100292
C        0.0162156265   -0.0907723526    0.0004395156
N       -1.0723277679    0.2392296379    0.0108188848
H        1.0611855979   -0.1470815391   -0.0107248454
3    
Iteration 29 Energy -92.34937246
C        0.0126403083   -0.1116954426    0.0005750285
N       -1.0666097528    0.2485370770    0.0107134795
H        1.0590429010   -0.1354658882   -0.0107549531
3    
Iteration 28 Energy -92.34741172
C        0.0090861754   -0.1326347796    0.0007103847
N       -1.0600715271    0.2577041174    0.0105997546
H        1.0560588082   -0.1236935916   -0.0107765844
3    
Iteration 27 Energy -92.34513397
C        0.0055621022   -0.1535339468    0.0008452271
N       -1.0527300940    0.2667066555    0.0104780069
H        1.0522414483   -0.1117969624   -0.0107896792
3    
Iteration 26 Energy -92.34255149
C        0.0020710603   -0.1743539724    0.0009793437
N       -1.0446079894    0.2755301281    0.0103485500
H        1.0476103856   -0.0998004095   -0.0107943388
3    
Iteration 25 Energy -92.33967544
C       -0.0013871647   -0.1950658952    0.0011126033
N       -1.0357299132    0.2841651382    0.0102116972
H        1.0421905344   -0.0877234968   -0.0107907456
3    
Iteration 24 Energy -92.33651614
C       -0.0048140412   -0.2156469423    0.0012449171
N       -1.0261207011    0.2926051915    0.0100677499
H        1.0360081989   -0.0755825030   -0.0107791121
3    
Iteration 23 Energy -92.33308372
C       -0.0082129265   -0.2360791433    0.0013762389
N       -1.0158069408    0.3008462268    0.0099170175
H        1.0290933238   -0.0633913373   -0.0107597015
3    
Iteration 22 Energy -92.32938872
C       -0.0115883382   -0.2563475218    0.0015065490
N       -1.0048142810    0.3088852192    0.0097597943
H        1.0214760758   -0.0511619512   -0.0107327885
3    
Iteration 21 Energy -92.32544282
C       -0.0149469578   -0.2764397674    0.0016358639
N       -0.9931686708    0.3167200924    0.0095963737
H        1.0131890851   -0.0389045787   -0.0106986827
3    
Iteration 20 Energy -92.32125951
C       -0.0182974573   -0.2963451444    0.0017642288
N       -0.9808945571    0.3243487635    0.0094270324
H        1.0042654709   -0.0266278728   -0.0106577063
3    
Iteration 19 Energy -92.31685478
C       -0.0216505784   -0.3160540058    0.0018917167
N       -0.9680147020    0.3317687509    0.0092520307
H        0.9947387369   -0.0143389990   -0.0106101925
3    
Iteration 18 Energy -92.31224787
C       -0.0250197900   -0.3355578786    0.0020184357
N       -0.9545511699    0.3389771791    0.0090716231
H        0.9846444164   -0.0020435543   -0.0105565039
3    
Iteration 17 Energy -92.30746209
C       -0.0284207173   -0.3548484164    0.0021445183
N       -0.9405234817    0.3459698509    0.0088860424
H        0.9740176554    0.0102543117   -0.0104970058
3    
Iteration 16 Energy -92.30252557
C       -0.0318707459   -0.3739173276    0.0022701163
N       -0.9259491352    0.3527412384    0.0086955053
H        0.9628933376    0.0225518353   -0.0104320667
3    
Iteration 15 Energy -92.29747213
C       -0.0353888004   -0.3927562432    0.0023953981
N       -0.9108439062    0.3592843864    0.0085002163
H        0.9513061631    0.0348476030   -0.0103620594
3    
Iteration 14 Energy -92.29234194
C       -0.0389944804   -0.4113561499    0.0025205362
N       -0.8952213039    0.3655905914    0.0083003632
H        0.9392892407    0.0471413048   -0.0102873445
3    
Iteration 13 Energy -92.28718215
C       -0.0427082311   -0.4297079888    0.0026457126
N       -0.8790942337    0.3716498826    0.0080961331
H        0.9268759213    0.0594338524   -0.0102082908
3    
Iteration 12 Energy -92.28204705
C       -0.0465503482   -0.4478018236    0.0027711032
N       -0.8624739746    0.3774505687    0.0078877032
H        0.9140977792    0.0717270011   -0.0101252515
3    
Iteration 11 Energy -92.27699787
C       -0.0505416081   -0.4656277754    0.0028968898
N       -0.8453722127    0.3829798568    0.0076752601
H        0.9009872773    0.0840236647   -0.0100385950
3    
Iteration 10 Energy -92.27210199
C       -0.0547025939   -0.4831754587    0.0030232494
N       -0.8278004393    0.3882235619    0.0074589949
H        0.8875764896    0.0963276430   -0.0099486893
3    
Iteration 9 Energy -92.26743142
C       -0.0590557188   -0.5004357221    0.0031503849
N       -0.8097728192    0.3931668051    0.0072391309
H        0.8739019945    0.1086446632   -0.0098559609
3    
Iteration 8 Energy -92.26306056
C       -0.0636247906   -0.5174000842    0.0032785174
N       -0.7913053802    0.3977935230    0.0070159176
H        0.8600036272    0.1209823074   -0.0097608801
3    
Iteration 7 Energy -92.25906330
C       -0.0684359947   -0.5340615377    0.0034079011
N       -0.7724172047    0.4020865455    0.0067896424
H        0.8459266559    0.1333507383   -0.0096639886
3    
Iteration 6 Energy -92.25550963
C       -0.0735188100   -0.5504153761    0.0035388364
N       -0.7531314910    0.4060275846    0.0065606435
H        0.8317237574    0.1457635377   -0.0095659250
3    
Iteration 5 Energy -92.25246192
C       -0.0789066124   -0.5664596947    0.0036716794
N       -0.7334761199    0.4095969790    0.0063293162
H        0.8174561888    0.1582384619   -0.0094674406
3    
Iteration 4 Energy -92.24997133
C       -0.0846305605   -0.5821932069    0.0038067648
N       -0.7134807863    0.4127743778    0.0060960788
H        0.8031848032    0.1707945753   -0.0093692887
3    
Iteration 3 Energy -92.24807412
C       -0.0904463739   -0.5974979338    0.0039408785
N       -0.6930387352    0.4155837131    0.0058596541
H        0.7885585656    0.1832899669   -0.0092669777
3    
Iteration 2 Energy -92.24679535
C       -0.0988590732   -0.6134428021    0.0041063321
N       -0.6737912794    0.4175912225    0.0056399843
H        0.7777238091    0.1972273258   -0.0092127615
3    
Iteration 1 Energy -92.24615221
C       -0.1012376006   -0.6247098479    0.0041842603
N       -0.6526926958    0.4198636443    0.0053988567
H        0.7590037528    0.2062219497   -0.0090495621
3    
Iteration 0 Energy -92.24601961
C       -0.1088783634   -0.6365101639    0.0043221742
N       -0.6393457902    0.4205365638    0.0052498438
H        0.7532976101    0.2173493463   -0.0090384631
3    
Iteration 1 Energy -92.24630043
C       -0.1162905585   -0.6510144745    0.0044700511
N       -0.6186302717    0.4219474719    0.0050168743
H        0.7399942867    0.2304427488   -0.0089533705
3    
Iteration 2 Energy -92.24712382
C       -0.1243507190   -0.6645573751    0.0046205808
N       -0.5970897120    0.4222151982    0.0047801538
H        0.7265138875    0.2437179231   -0.0088671797
3    
Iteration 3 Energy -92.24843579
C       -0.1331094018   -0.6784715777    0.0047804583
N       -0.5759838710    0.4223007379    0.0045490253
H        0.7141667293    0.2575465861   -0.0087959286
3    
Iteration 4 Energy -92.25017035
C       -0.1426777777   -0.6921253546    0.0049479872
N       -0.5550129307    0.4216446922    0.0043227893
H        0.7027641649    0.2718564086   -0.0087372216
3    
Iteration 5 Energy -92.25225888
C       -0.1531815362   -0.7056514642    0.0051251536
N       -0.5344272407    0.4202315282    0.0041042542
H        0.6926822334    0.2867956823   -0.0086958529
3    
Iteration 6 Energy -92.25463737
C       -0.1647218581   -0.7190928611    0.0053132616
N       -0.5144394463    0.4179864070    0.0038960896
H        0.6842347608    0.3024822003   -0.0086757963
3    
Iteration 7 Energy -92.25725494
C       -0.1773580206   -0.7324692344    0.0055130499
N       -0.4952696770    0.4148399527    0.0037010218
H        0.6777011541    0.3190050279   -0.0086805168
3    
Iteration 8 Energy -92.26007879
C       -0.1910734044   -0.7457679803    0.0057242788
N       -0.4770973079    0.4107508584    0.0035212021
H        0.6732441689    0.3363928680   -0.0087119260
3    
Iteration 9 Energy -92.26309184
C       -0.2057576360   -0.7589414460    0.0059455220
N       -0.4599950892    0.4057253068    0.0033573973
H        0.6708261816    0.3545918854   -0.0087693644
3    
Iteration 10 Energy -92.26628353
C       -0.2212239259   -0.7719168620    0.0061744021
N       -0.4438892576    0.3998210921    0.0032085347
H        0.6701866400    0.3734715161   -0.0088493819
3    
Iteration 11 Energy -92.26964033
C       -0.2372554960   -0.7846106585    0.0064081641
N       -0.4285818319    0.3931291229    0.0030720309
H        0.6709107844    0.3928572818   -0.0089466401
3    
Iteration 12 Energy -92.27314135
C       -0.2536540556   -0.7969443876    0.0066442787
N       -0.4138286457    0.3857466799    0.0029447684
H        0.6725561578    0.4125734538   -0.0090554922
3    
Iteration 13 Energy -92.27675880
C       -0.2702631172   -0.8088501200    0.0068807221
N       -0.3994079804    0.3777565507    0.0028239416
H        0.6747445541    0.4324693155   -0.0091711088
3    
Iteration 14 Energy -92.28046012
C       -0.2869686877   -0.8202724266    0.0071159926
N       -0.3851532331    0.3692208935    0.0027074428
H        0.6771953773    0.4524272793   -0.0092898806
3    
Iteration 15 Energy -92.28421032
C       -0.3036888330   -0.8311670127    0.0073489904
N       -0.3709521038    0.3601843714    0.0025938385
H        0.6797143933    0.4723583875   -0.0094092740
3    
Iteration 16 Energy -92.28797384
C       -0.3203621668   -0.8414977353    0.0075788778
N       -0.3567318720    0.3506799379    0.0024821818
H        0.6821674953    0.4921935436   -0.0095275047
3    
Iteration 17 Energy -92.29171636
C       -0.3369401436   -0.8512353808    0.0078049895
N       -0.3424465357    0.3407342100    0.0023718471
H        0.6844601358    0.5118769170   -0.0096432817
3    
Iteration 18 Energy -92.29540622
C       -0.3533818971   -0.8603561375    0.0080267689
N       -0.3280660416    0.3303713229    0.0022623947
H        0.6865213952    0.5313605608   -0.0097556087
3    
Iteration 19 Energy -92.29901553
C       -0.3696517033   -0.8688413052    0.0082437394
N       -0.3135699468    0.3196154954    0.0021534894
H        0.6882951066    0.5506015559   -0.0098636738
3    
Iteration 20 Energy -92.30252086
C       -0.3857175537   -0.8766768199    0.0084554862
N       -0.2989428248    0.3084925765    0.0020448434
H        0.6897338350    0.5695599897   -0.0099667747
3    
Iteration 21 Energy -92.30590343
C       -0.4015513701   -0.8838542760    0.0086616635
N       -0.2841730174    0.2970307009    0.0019361997
H        0.6907978440    0.5881993213   -0.0100643083
3    
Iteration 22 Energy -92.30914898
C       -0.4171278835   -0.8903688746    0.0088619731
N       -0.2692487925    0.2852605397    0.0018272887
H        0.6914501325    0.6064840811   -0.0101557069
3    
Iteration 23 Energy -92.31224735
C       -0.4324258006   -0.8962204945    0.0090561817
N       -0.2541601494    0.2732141822    0.0017178530
H        0.6916594065    0.6243820585   -0.0102404798
3    
Iteration 24 Energy -92.31519176
C       -0.4474275973   -0.9014128634    0.0092441147
N       -0.2388979327    0.2609246311    0.0016076406
H        0.6913989865    0.6418639786   -0.0103182004
3    
Iteration 25 Energy -92.31797814
C       -0.4621187868   -0.9059516370    0.0094256399
N       -0.2234531874    0.2484247887    0.0014964020
H        0.6906454307    0.6589025946   -0.0103884869
3    
Iteration 26 Energy -92.32060435
C       -0.4764877729   -0.9098436528    0.0096006620
N       -0.2078184404    0.2357460352    0.0013839107
H        0.6893796698    0.6754733638   -0.0104510178
3    
Iteration 27 Energy -92.32306952
C       -0.4905253414   -0.9130962075    0.0097691139
N       -0.1919880598    0.2229176319    0.0012699703
H        0.6875868576    0.6915543218   -0.0105055294
3    
Iteration 28 Energy -92.32537341
C       -0.5042224106   -0.9157135729    0.0099309161
N       -0.1759565181    0.2099666370    0.0011543958
H        0.6852523851    0.7071226821   -0.0105517571
3    
Iteration 29 Energy -92.32751587
C       -0.5175711877   -0.9176991930    0.0100859992
N       -0.1597222299    0.1969162727    0.0010370628
H        0.6823668741    0.7221586666   -0.0105895072
3    
Iteration 30 Energy -92.32949638
C       -0.5305630702   -0.9190533873    0.0102342707
N       -0.1432841019    0.1837881328    0.0009178598
H        0.6789206286    0.7366410006   -0.0106185756
3    
Iteration 31 Energy -92.33131371
C       -0.5431880592   -0.9197726549    0.0103756050
N       -0.1266435387    0.1706007739    0.0007967167
H        0.6749050545    0.7505476272   -0.0106387668
3    
Iteration 32 Energy -92.33296563
C       -0.5554356863   -0.9198522600    0.0105098659
N       -0.1098053323    0.1573705470    0.0006736104
H        0.6703144751    0.7638574592   -0.0106499214
3    
Iteration 33 Energy -92.33444883
C       -0.5672933696   -0.9192846713    0.0106368812
N       -0.0927758739    0.1441135602    0.0005485366
H        0.6651427001    0.7765468572   -0.0106518630
3    
Iteration 34 Energy -92.33575883
C       -0.5787476503   -0.9180625919    0.0107564701
N       -0.0755671801    0.1308443429    0.0004215598
H        0.6593882869    0.7885939951   -0.0106444750
3    
Iteration 35 Energy -92.33689014
C       -0.5897796208   -0.9161747580    0.0108683740
N       -0.0581931306    0.1175820852    0.0002927432
H        0.6530462079    0.7999684190   -0.0106275623
3    
Iteration 36 Energy -92.33783653
C       -0.6003713458   -0.9136198407    0.0109723907
N       -0.0406860953    0.1043439361    0.0001623616
H        0.6461308976    0.8106516508   -0.0106011974
3    
Iteration 37 Energy -92.33859152
C       -0.6104821747   -0.9103866594    0.0110680243
N       -0.0230818453    0.0911820990    0.0000305656
H        0.6386374765    0.8205803067   -0.0105650349
3    
Iteration 38 Energy -92.33914904
C       -0.6200692458   -0.9065110550    0.0111549713
N       -0.0055141898    0.0781375680   -0.0001013710
H        0.6306568921    0.8297492333   -0.0105200454
3    
Iteration 39 Energy -92.33950844
C       -0.6284124188   -0.9011084395    0.0112212823
N        0.0125147772    0.0660312450   -0.0002426746
H        0.6209710981    0.8364529407   -0.0104450528
3    
Iteration 40 Energy -92.33958948
C       -0.6372940750   -0.8977421866    0.0113028650
N        0.0261654805    0.0510280306   -0.0003227633
H        0.6162020510    0.8480899022   -0.0104465467
3    
Iteration 41 Energy -92.33968810
C       -0.6399654645   -0.8939233016    0.0113144694
N        0.0363663572    0.0487910926   -0.0004239726
H        0.6086725638    0.8465079552   -0.0103569419
3    
Iteration 42 Energy -92.33969017
C       -0.6400234248   -0.8940052115    0.0113159518
N        0.0361610040    0.0485049185   -0.0004204341
H        0.6089358773    0.8468760392   -0.0103619629
3    
Iteration 43 Energy -92.33969017
C       -0.6400234163   -0.8940052175    0.0113159593
N        0.0361609865    0.0485049329   -0.0004204503
H        0.6089358863    0.8468760308   -0.0103619541
